@<TRIPOS>MOLECULE
MOL
 29 31 0 0 0
SMALL
GASTEIGER

@<TRIPOS>ATOM
      1 H           1.1391   -0.3912    2.4492 H       1  UNL11       0.0624
      2 C           0.5975   -0.2944    1.5133 C.ar    1  UNL11      -0.0526
      3 C          -0.7940   -0.4414    1.4847 C.ar    1  UNL11      -0.0611
      4 H          -1.3297   -0.6514    2.4070 H       1  UNL11       0.0618
      5 C          -1.4950   -0.3255    0.2862 C.ar    1  UNL11      -0.0598
      6 H          -2.5758   -0.4479    0.2839 H       1  UNL11       0.0618
      7 C          -0.8309   -0.0558   -0.9153 C.ar    1  UNL11      -0.0378
      8 H          -1.3805    0.0313   -1.8464 H       1  UNL11       0.0638
      9 C           0.5614    0.0885   -0.8677 C.ar    1  UNL11       0.0467
     10 N           1.4657    0.3467   -1.8746 N.ar    1  UNL11      -0.3577
     11 C           1.2867   -0.0282    0.3147 C.ar    1  UNL11      -0.0001
     12 C           2.6546    0.1518   -0.0200 C.ar    1  UNL11      -0.0331
     13 C           2.7517    0.3739   -1.3831 C.ar    1  UNL11       0.0201
     14 H           1.2025    0.4716   -2.8406 H       1  UNL1        0.1656
     15 H           3.4894    0.1035    0.6674 H       1  UNL1        0.0641
     16 C           3.9871    0.5482   -2.2274 C.3     1  UNL1       -0.0007
     17 H           4.5549   -0.3883   -2.1604 H       1  UNL1        0.0363
     18 C           3.7524    0.9027   -3.6969 C.3     1  UNL1       -0.0449
     19 H           4.6365    0.6081   -4.2780 H       1  UNL1        0.0272
     20 H           2.8961    0.4046   -4.1599 H       1  UNL1        0.0272
     21 C           3.6315    2.4247   -3.7429 C.3     1  UNL1       -0.0524
     22 H           4.1292    2.8275   -4.6317 H       1  UNL1        0.0265
     23 H           2.5813    2.7330   -3.7891 H       1  UNL1        0.0265
     24 C           4.2748    2.9442   -2.4597 C.3     1  UNL1       -0.0524
     25 H           5.0496    3.6903   -2.6643 H       1  UNL1        0.0265
     26 H           3.5158    3.4238   -1.8311 H       1  UNL1        0.0265
     27 C           4.8525    1.7211   -1.7560 C.3     1  UNL1       -0.0449
     28 H           5.8858    1.5686   -2.0931 H       1  UNL1        0.0272
     29 H           4.8797    1.8543   -0.6700 H       1  UNL1        0.0272
@<TRIPOS>BOND
     1     1     2    1
     2     2     3   ar
     3     2    11   ar
     4     3     4    1
     5     3     5   ar
     6     5     6    1
     7     5     7   ar
     8     7     8    1
     9     7     9   ar
    10     9    10   ar
    11     9    11   ar
    12    11    12   ar
    13    12    13   ar
    14    10    13   ar
    15    10    14    1
    16    12    15    1
    17    16    17    1
    18    16    18    1
    19    16    27    1
    20    18    19    1
    21    18    20    1
    22    18    21    1
    23    21    22    1
    24    21    23    1
    25    21    24    1
    26    24    25    1
    27    24    26    1
    28    24    27    1
    29    27    28    1
    30    27    29    1
31 13 16 1
